/*--------------------------------*- C++ -*----------------------------------*\ 
| =========                 |                                                 | 
| \\      /  F ield         | OpenFOAM: The Open Source CFD Toolbox           | 
|  \\    /   O peration     | Version:  dev                                   | 
|   \\  /    A nd           | Web:      www.OpenFOAM.org                      | 
|    \\/     M anipulation  |                                                 | 
\*---------------------------------------------------------------------------*/ 

FoamFile
{
    version     2.0;
    format      ascii;
    class       dictionary;
    location    "system";
    object      controlDict;
}
// * * * * * * * * * * * * * * * * * * * * * * * * * * * * * * * * * * * * * //

application simpleFoam;

startFrom latestTime;

startTime 0;

stopAt endTime;

endTime 4001;

deltaT 1;

writeControl timeStep;

writeInterval 500;

purgeWrite 2;

writeFormat ascii;

writePrecision 16;

writeCompression no;

timeFormat general;

timePrecision 12;

runTimeModifiable yes;

libs
(
    "libforces.so"
);

functions
{
    #include "wingForces";
    #include "yPlus";
    #include "wallShearStress";
}
