/*--------------------------------*- C++ -*----------------------------------*\
| =========                 |                                                 |
| \\      /  F ield         | OpenFOAM: The Open Source CFD Toolbox           |
|  \\    /   O peration     | Version:  2.1.1                                 |
|   \\  /    A nd           | Web:      www.OpenFOAM.org                      |
|    \\/     M anipulation  |                                                 |
\*---------------------------------------------------------------------------*/
FoamFile
{
    version     2.0;
    format      ascii;
    class       dictionary;
    location    "system";
    object      fvSolution;
}
// * * * * * * * * * * * * * * * * * * * * * * * * * * * * * * * * * * * * * //

solvers
{
    "(Phi|p)"
    {
        solver          GAMG;
        tolerance       1e-8;
        relTol          0.1;
        smoother        GaussSeidel;
        minIter         1;
    }

    "(U|k|omega)"
    {
        solver          smoothSolver;
        smoother        symGaussSeidel;
        tolerance       1e-9;
        relTol          0.1;
        maxIter         10;
        minIter         1;
    }
}

SIMPLE
{
    consistent      yes;
    nNonOrthogonalCorrectors 1;

    residualControl
    {
        p               -1e-07;
        U               -1e-07;
        k               -1e-07;
        omega           -1e-07;
    }

}

relaxationFactors
{
    equations
    {
        U               0.3;
        k               0.5;
        omega           0.5;
    }
}

potentialFlow
{
    nNonOrthogonalCorrectors 10;
}

// ************************************************************************* //
